REMARK  1 active torsions:
REMARK  status: ('A' for Active; 'I' for Inactive)
REMARK    1  A    between atoms: O_1  and  C_20 
ROOT
HETATM    1  C   LIG     1      -2.230   3.967   4.790  1.00  0.00    -0.032 C 
HETATM    2  C   LIG     1      -2.084   4.917   6.049  1.00  0.00     0.003 C 
HETATM    3  C   LIG     1      -3.455   5.605   6.509  1.00  0.00    -0.035 C 
HETATM    4  C   LIG     1      -0.731   3.382   4.461  1.00  0.00    -0.027 C 
HETATM    5  C   LIG     1      -4.494   4.506   6.920  1.00  0.00     0.004 C 
HETATM    6  C   LIG     1      -3.325   2.940   5.250  1.00  0.00     0.011 C 
HETATM    7  C   LIG     1      -0.368   2.418   5.609  1.00  0.00    -0.015 C 
HETATM    8  C   LIG     1      -0.934   0.951   5.429  1.00  0.00     0.008 C 
HETATM    9  C   LIG     1      -4.660   3.465   5.794  1.00  0.00     0.007 C 
HETATM   10  C   LIG     1      -0.715   0.366   3.995  1.00  0.00    -0.039 C 
HETATM   11  C   LIG     1      -5.852   5.050   7.519  1.00  0.00    -0.017 C 
HETATM   12  C   LIG     1      -0.494   2.714   3.083  1.00  0.00     0.011 C 
HETATM   13  C   LIG     1      -1.318   4.131   7.205  1.00  0.00     0.012 C 
HETATM   14  C   LIG     1      -3.223   6.578   7.696  1.00  0.00     0.012 C 
HETATM   15  C   LIG     1      -1.162   1.381   2.915  1.00  0.00     0.010 C 
HETATM   16  C   LIG     1      -2.723   4.615   3.480  1.00  0.00     0.016 C 
HETATM   17  C   LIG     1      -0.297   3.032   6.796  1.00  0.00     0.001 C 
HETATM   18  C   LIG     1      -0.736  -0.133   6.556  1.00  0.00    -0.009 C 
HETATM   19  C   LIG     1      -5.517   6.041   8.678  1.00  0.00     0.126 C 
HETATM   20  C   LIG     1      -3.982   6.490   5.348  1.00  0.00     0.016 C 
HETATM   21  C   LIG     1       0.333   4.554   4.399  1.00  0.00     0.016 C 
HETATM   22  C   LIG     1      -4.530   7.142   8.279  1.00  0.00     0.033 C 
HETATM   23  C   LIG     1      -1.635  -0.855   3.766  1.00  0.00     0.010 C 
HETATM   24  C   LIG     1      -1.717  -1.327   6.289  1.00  0.00    -0.014 C 
HETATM   25  C   LIG     1      -1.620  -1.893   4.866  1.00  0.00     0.005 C 
HETATM   26  C   LIG     1       0.763  -0.012   3.780  1.00  0.00     0.015 C 
HETATM   27  C   LIG     1      -6.773   5.727   6.479  1.00  0.00     0.018 C 
HETATM   28  C   LIG     1      -6.695   3.879   8.097  1.00  0.00     0.018 C 
HETATM   29  C   LIG     1      -0.994   0.419   7.970  1.00  0.00     0.011 C 
HETATM   30  C   LIG     1      -1.530  -2.509   7.249  1.00  0.00     0.010 C 
ENDROOT
BRANCH  19  31
HETATM   31  O   LIG     1      -4.944   5.315   9.772  1.00  0.00    -0.395 OA
HETATM   32  H   LIG     1      -4.499   5.949  10.360  1.00  0.00     0.210 HD
ENDBRANCH  19  31
TORSDOF 1
