MODEL 1
REMARK VINA RESULT:      -7.7      0.000      0.000
REMARK  1 active torsions:
REMARK  status: ('A' for Active; 'I' for Inactive)
REMARK    1  A    between atoms: O_1  and  C_20 
ROOT
HETATM    1  C   LIG     1      26.140  35.975 100.751  1.00  0.00    -0.032 C 
HETATM    2  C   LIG     1      26.852  37.375 100.544  1.00  0.00     0.003 C 
HETATM    3  C   LIG     1      27.869  37.413  99.307  1.00  0.00    -0.035 C 
HETATM    4  C   LIG     1      25.168  36.128 102.066  1.00  0.00    -0.027 C 
HETATM    5  C   LIG     1      27.099  37.122  97.973  1.00  0.00     0.004 C 
HETATM    6  C   LIG     1      25.451  35.723  99.363  1.00  0.00     0.011 C 
HETATM    7  C   LIG     1      24.016  37.070 101.659  1.00  0.00    -0.015 C 
HETATM    8  C   LIG     1      22.821  36.350 100.911  1.00  0.00     0.008 C 
HETATM    9  C   LIG     1      26.293  35.812  98.084  1.00  0.00     0.007 C 
HETATM   10  C   LIG     1      22.363  35.020 101.596  1.00  0.00    -0.039 C 
HETATM   11  C   LIG     1      27.960  37.256  96.653  1.00  0.00    -0.017 C 
HETATM   12  C   LIG     1      24.619  34.836 102.722  1.00  0.00     0.011 C 
HETATM   13  C   LIG     1      25.745  38.522 100.525  1.00  0.00     0.012 C 
HETATM   14  C   LIG     1      28.584  38.787  99.211  1.00  0.00     0.012 C 
HETATM   15  C   LIG     1      23.581  34.118 101.911  1.00  0.00     0.010 C 
HETATM   16  C   LIG     1      27.052  34.766 101.043  1.00  0.00     0.016 C 
HETATM   17  C   LIG     1      24.441  38.298 101.342  1.00  0.00     0.001 C 
HETATM   18  C   LIG     1      21.608  37.181 100.343  1.00  0.00    -0.009 C 
HETATM   19  C   LIG     1      28.664  38.649  96.664  1.00  0.00     0.126 C 
HETATM   20  C   LIG     1      28.997  36.378  99.558  1.00  0.00     0.016 C 
HETATM   21  C   LIG     1      25.959  36.757 103.285  1.00  0.00     0.016 C 
HETATM   22  C   LIG     1      29.450  38.931  97.948  1.00  0.00     0.033 C 
HETATM   23  C   LIG     1      21.515  34.176 100.617  1.00  0.00     0.010 C 
HETATM   24  C   LIG     1      20.808  36.286  99.335  1.00  0.00    -0.014 C 
HETATM   25  C   LIG     1      20.404  34.923  99.913  1.00  0.00     0.005 C 
HETATM   26  C   LIG     1      21.580  35.314 102.889  1.00  0.00     0.015 C 
HETATM   27  C   LIG     1      28.998  36.127  96.462  1.00  0.00     0.018 C 
HETATM   28  C   LIG     1      27.044  37.173  95.400  1.00  0.00     0.018 C 
HETATM   29  C   LIG     1      22.049  38.470  99.626  1.00  0.00     0.011 C 
HETATM   30  C   LIG     1      19.525  36.941  98.808  1.00  0.00     0.010 C 
ENDROOT
BRANCH  19  31
HETATM   31  O   LIG     1      27.679  39.679  96.518  1.00  0.00    -0.395 OA
HETATM   32  H   LIG     1      27.230  39.795  97.373  1.00  0.00     0.210 HD
ENDBRANCH  19  31
TORSDOF 1
ENDMDL
MODEL 2
REMARK VINA RESULT:      -7.5     16.119     19.462
REMARK  1 active torsions:
REMARK  status: ('A' for Active; 'I' for Inactive)
REMARK    1  A    between atoms: O_1  and  C_20 
ROOT
HETATM    1  C   LIG     1      33.569  34.835  82.638  1.00  0.00    -0.032 C 
HETATM    2  C   LIG     1      33.107  35.161  84.118  1.00  0.00     0.003 C 
HETATM    3  C   LIG     1      34.040  36.220  84.874  1.00  0.00    -0.035 C 
HETATM    4  C   LIG     1      32.514  33.725  82.045  1.00  0.00    -0.027 C 
HETATM    5  C   LIG     1      34.026  37.588  84.110  1.00  0.00     0.004 C 
HETATM    6  C   LIG     1      33.593  36.250  81.958  1.00  0.00     0.011 C 
HETATM    7  C   LIG     1      31.165  34.450  81.858  1.00  0.00    -0.015 C 
HETATM    8  C   LIG     1      31.037  35.240  80.492  1.00  0.00     0.008 C 
HETATM    9  C   LIG     1      34.382  37.385  82.623  1.00  0.00     0.007 C 
HETATM   10  C   LIG     1      31.514  34.422  79.247  1.00  0.00    -0.039 C 
HETATM   11  C   LIG     1      34.805  38.767  84.819  1.00  0.00    -0.017 C 
HETATM   12  C   LIG     1      32.910  32.954  80.761  1.00  0.00     0.011 C 
HETATM   13  C   LIG     1      31.557  35.535  84.106  1.00  0.00     0.012 C 
HETATM   14  C   LIG     1      33.573  36.433  86.339  1.00  0.00     0.012 C 
HETATM   15  C   LIG     1      32.899  33.783  79.510  1.00  0.00     0.010 C 
HETATM   16  C   LIG     1      34.971  34.214  82.466  1.00  0.00     0.016 C 
HETATM   17  C   LIG     1      30.655  34.898  83.011  1.00  0.00     0.001 C 
HETATM   18  C   LIG     1      29.761  36.113  80.184  1.00  0.00    -0.009 C 
HETATM   19  C   LIG     1      34.293  38.881  86.289  1.00  0.00     0.126 C 
HETATM   20  C   LIG     1      35.473  35.635  84.980  1.00  0.00     0.016 C 
HETATM   21  C   LIG     1      32.330  32.521  83.058  1.00  0.00     0.016 C 
HETATM   22  C   LIG     1      34.336  37.558  87.059  1.00  0.00     0.033 C 
HETATM   23  C   LIG     1      31.757  35.364  78.046  1.00  0.00     0.010 C 
HETATM   24  C   LIG     1      30.080  37.069  78.982  1.00  0.00    -0.014 C 
HETATM   25  C   LIG     1      30.641  36.341  77.753  1.00  0.00     0.005 C 
HETATM   26  C   LIG     1      30.491  33.327  78.889  1.00  0.00     0.015 C 
HETATM   27  C   LIG     1      36.342  38.612  84.792  1.00  0.00     0.018 C 
HETATM   28  C   LIG     1      34.527  40.113  84.092  1.00  0.00     0.018 C 
HETATM   29  C   LIG     1      29.308  36.959  81.388  1.00  0.00     0.011 C 
HETATM   30  C   LIG     1      28.872  37.883  78.501  1.00  0.00     0.010 C 
ENDROOT
BRANCH  19  31
HETATM   31  O   LIG     1      32.936  39.341  86.285  1.00  0.00    -0.395 OA
HETATM   32  H   LIG     1      32.927  40.268  86.579  1.00  0.00     0.210 HD
ENDBRANCH  19  31
TORSDOF 1
ENDMDL
MODEL 3
REMARK VINA RESULT:      -7.5      2.853      6.995
REMARK  1 active torsions:
REMARK  status: ('A' for Active; 'I' for Inactive)
REMARK    1  A    between atoms: O_1  and  C_20 
ROOT
HETATM    1  C   LIG     1      25.851  35.163 101.217  1.00  0.00    -0.032 C 
HETATM    2  C   LIG     1      24.409  34.547 101.442  1.00  0.00     0.003 C 
HETATM    3  C   LIG     1      24.182  33.938 102.905  1.00  0.00    -0.035 C 
HETATM    4  C   LIG     1      25.897  35.709  99.669  1.00  0.00    -0.027 C 
HETATM    5  C   LIG     1      24.340  35.063 103.985  1.00  0.00     0.004 C 
HETATM    6  C   LIG     1      25.961  36.228 102.366  1.00  0.00     0.011 C 
HETATM    7  C   LIG     1      24.960  36.932  99.601  1.00  0.00    -0.015 C 
HETATM    8  C   LIG     1      25.631  38.291 100.055  1.00  0.00     0.008 C 
HETATM    9  C   LIG     1      25.685  35.798 103.812  1.00  0.00     0.007 C 
HETATM   10  C   LIG     1      27.051  38.525  99.442  1.00  0.00    -0.039 C 
HETATM   11  C   LIG     1      24.014  34.626 105.469  1.00  0.00    -0.017 C 
HETATM   12  C   LIG     1      27.280  36.038  99.051  1.00  0.00     0.011 C 
HETATM   13  C   LIG     1      23.314  35.615 100.993  1.00  0.00     0.012 C 
HETATM   14  C   LIG     1      22.779  33.285 103.029  1.00  0.00     0.012 C 
HETATM   15  C   LIG     1      27.935  37.266  99.611  1.00  0.00     0.010 C 
HETATM   16  C   LIG     1      27.050  34.203 101.358  1.00  0.00     0.016 C 
HETATM   17  C   LIG     1      23.686  36.622  99.869  1.00  0.00     0.001 C 
HETATM   18  C   LIG     1      24.787  39.620 100.137  1.00  0.00    -0.009 C 
HETATM   19  C   LIG     1      22.605  33.954 105.486  1.00  0.00     0.126 C 
HETATM   20  C   LIG     1      25.194  32.782 103.126  1.00  0.00     0.016 C 
HETATM   21  C   LIG     1      25.389  34.597  98.661  1.00  0.00     0.016 C 
HETATM   22  C   LIG     1      22.449  32.828 104.460  1.00  0.00     0.033 C 
HETATM   23  C   LIG     1      27.804  39.621 100.232  1.00  0.00     0.010 C 
HETATM   24  C   LIG     1      25.585  40.678 100.975  1.00  0.00    -0.014 C 
HETATM   25  C   LIG     1      27.022  40.891 100.483  1.00  0.00     0.005 C 
HETATM   26  C   LIG     1      26.947  38.897  97.951  1.00  0.00     0.015 C 
HETATM   27  C   LIG     1      25.068  33.686 106.095  1.00  0.00     0.018 C 
HETATM   28  C   LIG     1      23.981  35.869 106.402  1.00  0.00     0.018 C 
HETATM   29  C   LIG     1      23.404  39.412 100.781  1.00  0.00     0.011 C 
HETATM   30  C   LIG     1      24.922  42.061 101.019  1.00  0.00     0.010 C 
ENDROOT
BRANCH  19  31
HETATM   31  O   LIG     1      21.605  34.941 105.208  1.00  0.00    -0.395 OA
HETATM   32  H   LIG     1      21.650  35.164 104.262  1.00  0.00     0.210 HD
ENDBRANCH  19  31
TORSDOF 1
ENDMDL
MODEL 4
REMARK VINA RESULT:      -7.5      2.438      3.976
REMARK  1 active torsions:
REMARK  status: ('A' for Active; 'I' for Inactive)
REMARK    1  A    between atoms: O_1  and  C_20 
ROOT
HETATM    1  C   LIG     1      25.479  34.494 102.409  1.00  0.00    -0.032 C 
HETATM    2  C   LIG     1      25.787  36.044 102.521  1.00  0.00     0.003 C 
HETATM    3  C   LIG     1      25.941  36.782 101.108  1.00  0.00    -0.035 C 
HETATM    4  C   LIG     1      25.381  33.918 103.944  1.00  0.00    -0.027 C 
HETATM    5  C   LIG     1      24.605  36.668 100.296  1.00  0.00     0.004 C 
HETATM    6  C   LIG     1      24.175  34.457 101.536  1.00  0.00     0.011 C 
HETATM    7  C   LIG     1      24.094  34.506 104.558  1.00  0.00    -0.015 C 
HETATM    8  C   LIG     1      22.780  33.692 104.214  1.00  0.00     0.008 C 
HETATM    9  C   LIG     1      24.155  35.196 100.191  1.00  0.00     0.007 C 
HETATM   10  C   LIG     1      22.937  32.146 104.388  1.00  0.00    -0.039 C 
HETATM   11  C   LIG     1      24.573  37.465  98.932  1.00  0.00    -0.017 C 
HETATM   12  C   LIG     1      25.443  32.384 104.154  1.00  0.00     0.011 C 
HETATM   13  C   LIG     1      24.726  36.713 103.504  1.00  0.00     0.012 C 
HETATM   14  C   LIG     1      26.316  38.276 101.294  1.00  0.00     0.012 C 
HETATM   15  C   LIG     1      24.223  31.643 103.690  1.00  0.00     0.010 C 
HETATM   16  C   LIG     1      26.536  33.622 101.702  1.00  0.00     0.016 C 
HETATM   17  C   LIG     1      24.124  35.841 104.642  1.00  0.00     0.001 C 
HETATM   18  C   LIG     1      21.367  34.209 104.683  1.00  0.00    -0.009 C 
HETATM   19  C   LIG     1      24.996  38.941  99.214  1.00  0.00     0.126 C 
HETATM   20  C   LIG     1      27.134  36.149 100.344  1.00  0.00     0.016 C 
HETATM   21  C   LIG     1      26.632  34.376 104.801  1.00  0.00     0.016 C 
HETATM   22  C   LIG     1      26.318  39.067  99.975  1.00  0.00     0.033 C 
HETATM   23  C   LIG     1      21.797  31.404 103.653  1.00  0.00     0.010 C 
HETATM   24  C   LIG     1      20.256  33.446 103.880  1.00  0.00    -0.014 C 
HETATM   25  C   LIG     1      20.402  31.920 103.932  1.00  0.00     0.005 C 
HETATM   26  C   LIG     1      22.967  31.765 105.881  1.00  0.00     0.015 C 
HETATM   27  C   LIG     1      25.459  36.852  97.824  1.00  0.00     0.018 C 
HETATM   28  C   LIG     1      23.136  37.466  98.339  1.00  0.00     0.018 C 
HETATM   29  C   LIG     1      21.183  35.724 104.474  1.00  0.00     0.011 C 
HETATM   30  C   LIG     1      18.828  33.770 104.338  1.00  0.00     0.010 C 
ENDROOT
BRANCH  19  31
HETATM   31  O   LIG     1      23.980  39.585  99.992  1.00  0.00    -0.395 OA
HETATM   32  H   LIG     1      24.068  40.546  99.875  1.00  0.00     0.210 HD
ENDBRANCH  19  31
TORSDOF 1
ENDMDL
MODEL 5
REMARK VINA RESULT:      -7.5     37.907     41.507
REMARK  1 active torsions:
REMARK  status: ('A' for Active; 'I' for Inactive)
REMARK    1  A    between atoms: O_1  and  C_20 
ROOT
HETATM    1  C   LIG     1      50.599  19.151  71.360  1.00  0.00    -0.032 C 
HETATM    2  C   LIG     1      49.179  18.966  70.683  1.00  0.00     0.003 C 
HETATM    3  C   LIG     1      49.040  17.627  69.815  1.00  0.00    -0.035 C 
HETATM    4  C   LIG     1      50.553  20.575  72.176  1.00  0.00    -0.027 C 
HETATM    5  C   LIG     1      49.245  16.372  70.730  1.00  0.00     0.004 C 
HETATM    6  C   LIG     1      50.761  17.836  72.202  1.00  0.00     0.011 C 
HETATM    7  C   LIG     1      49.600  20.372  73.372  1.00  0.00    -0.015 C 
HETATM    8  C   LIG     1      50.280  19.715  74.641  1.00  0.00     0.008 C 
HETATM    9  C   LIG     1      50.570  16.479  71.513  1.00  0.00     0.007 C 
HETATM   10  C   LIG     1      51.661  20.349  75.011  1.00  0.00    -0.039 C 
HETATM   11  C   LIG     1      49.007  14.976  70.027  1.00  0.00    -0.017 C 
HETATM   12  C   LIG     1      51.895  21.195  72.640  1.00  0.00     0.011 C 
HETATM   13  C   LIG     1      48.048  19.156  71.791  1.00  0.00     0.012 C 
HETATM   14  C   LIG     1      47.653  17.550  69.122  1.00  0.00     0.012 C 
HETATM   15  C   LIG     1      52.567  20.458  73.760  1.00  0.00     0.010 C 
HETATM   16  C   LIG     1      51.814  19.250  70.415  1.00  0.00     0.016 C 
HETATM   17  C   LIG     1      48.346  20.097  72.992  1.00  0.00     0.001 C 
HETATM   18  C   LIG     1      49.427  19.350  75.914  1.00  0.00    -0.009 C 
HETATM   19  C   LIG     1      47.609  15.007  69.333  1.00  0.00     0.126 C 
HETATM   20  C   LIG     1      50.076  17.673  68.660  1.00  0.00     0.016 C 
HETATM   21  C   LIG     1      50.002  21.739  71.254  1.00  0.00     0.016 C 
HETATM   22  C   LIG     1      47.409  16.210  68.407  1.00  0.00     0.033 C 
HETATM   23  C   LIG     1      52.444  19.415  75.962  1.00  0.00     0.010 C 
HETATM   24  C   LIG     1      50.258  18.377  76.820  1.00  0.00    -0.014 C 
HETATM   25  C   LIG     1      51.664  18.897  77.149  1.00  0.00     0.005 C 
HETATM   26  C   LIG     1      51.470  21.741  75.642  1.00  0.00     0.015 C 
HETATM   27  C   LIG     1      50.105  14.587  69.012  1.00  0.00     0.018 C 
HETATM   28  C   LIG     1      49.012  13.833  71.080  1.00  0.00     0.018 C 
HETATM   29  C   LIG     1      48.084  18.682  75.565  1.00  0.00     0.011 C 
HETATM   30  C   LIG     1      49.584  18.048  78.159  1.00  0.00     0.010 C 
ENDROOT
BRANCH  19  31
HETATM   31  O   LIG     1      46.584  15.049  70.333  1.00  0.00    -0.395 OA
HETATM   32  H   LIG     1      45.895  15.669  70.039  1.00  0.00     0.210 HD
ENDBRANCH  19  31
TORSDOF 1
ENDMDL
MODEL 6
REMARK VINA RESULT:      -7.4     16.609     20.077
REMARK  1 active torsions:
REMARK  status: ('A' for Active; 'I' for Inactive)
REMARK    1  A    between atoms: O_1  and  C_20 
ROOT
HETATM    1  C   LIG     1      31.453  35.097  82.865  1.00  0.00    -0.032 C 
HETATM    2  C   LIG     1      31.691  34.069  81.684  1.00  0.00     0.003 C 
HETATM    3  C   LIG     1      30.768  34.325  80.400  1.00  0.00    -0.035 C 
HETATM    4  C   LIG     1      32.463  34.660  84.084  1.00  0.00    -0.027 C 
HETATM    5  C   LIG     1      31.066  35.742  79.801  1.00  0.00     0.004 C 
HETATM    6  C   LIG     1      31.705  36.486  82.177  1.00  0.00     0.011 C 
HETATM    7  C   LIG     1      33.896  34.971  83.608  1.00  0.00    -0.015 C 
HETATM    8  C   LIG     1      34.344  36.472  83.833  1.00  0.00     0.008 C 
HETATM    9  C   LIG     1      30.948  36.830  80.888  1.00  0.00     0.007 C 
HETATM   10  C   LIG     1      33.997  37.024  85.254  1.00  0.00    -0.039 C 
HETATM   11  C   LIG     1      30.315  36.077  78.450  1.00  0.00    -0.017 C 
HETATM   12  C   LIG     1      32.207  35.254  85.492  1.00  0.00     0.011 C 
HETATM   13  C   LIG     1      33.252  33.991  81.371  1.00  0.00     0.012 C 
HETATM   14  C   LIG     1      30.999  33.238  79.317  1.00  0.00     0.012 C 
HETATM   15  C   LIG     1      32.524  36.715  85.618  1.00  0.00     0.010 C 
HETATM   16  C   LIG     1      30.041  35.136  83.484  1.00  0.00     0.016 C 
HETATM   17  C   LIG     1      34.250  34.257  82.533  1.00  0.00     0.001 C 
HETATM   18  C   LIG     1      35.744  36.981  83.317  1.00  0.00    -0.009 C 
HETATM   19  C   LIG     1      30.578  34.915  77.440  1.00  0.00     0.126 C 
HETATM   20  C   LIG     1      29.280  34.179  80.820  1.00  0.00     0.016 C 
HETATM   21  C   LIG     1      32.334  33.112  84.398  1.00  0.00     0.016 C 
HETATM   22  C   LIG     1      30.256  33.528  78.002  1.00  0.00     0.033 C 
HETATM   23  C   LIG     1      34.070  38.568  85.264  1.00  0.00     0.010 C 
HETATM   24  C   LIG     1      35.745  38.549  83.317  1.00  0.00    -0.014 C 
HETATM   25  C   LIG     1      35.323  39.162  84.660  1.00  0.00     0.005 C 
HETATM   26  C   LIG     1      34.936  36.423  86.317  1.00  0.00     0.015 C 
HETATM   27  C   LIG     1      28.798  36.315  78.616  1.00  0.00     0.018 C 
HETATM   28  C   LIG     1      30.863  37.397  77.840  1.00  0.00     0.018 C 
HETATM   29  C   LIG     1      36.077  36.482  81.899  1.00  0.00     0.011 C 
HETATM   30  C   LIG     1      37.101  39.168  82.955  1.00  0.00     0.010 C 
ENDROOT
BRANCH  19  31
HETATM   31  O   LIG     1      31.959  34.923  77.058  1.00  0.00    -0.395 OA
HETATM   32  H   LIG     1      32.489  35.183  77.831  1.00  0.00     0.210 HD
ENDBRANCH  19  31
TORSDOF 1
ENDMDL
MODEL 7
REMARK VINA RESULT:      -7.4     36.735     41.687
REMARK  1 active torsions:
REMARK  status: ('A' for Active; 'I' for Inactive)
REMARK    1  A    between atoms: O_1  and  C_20 
ROOT
HETATM    1  C   LIG     1      49.504  17.570  72.904  1.00  0.00    -0.032 C 
HETATM    2  C   LIG     1      48.826  18.760  73.699  1.00  0.00     0.003 C 
HETATM    3  C   LIG     1      49.171  18.779  75.263  1.00  0.00    -0.035 C 
HETATM    4  C   LIG     1      49.017  17.706  71.341  1.00  0.00    -0.027 C 
HETATM    5  C   LIG     1      50.715  18.951  75.469  1.00  0.00     0.004 C 
HETATM    6  C   LIG     1      51.031  17.769  73.208  1.00  0.00     0.011 C 
HETATM    7  C   LIG     1      49.700  18.966  70.771  1.00  0.00    -0.015 C 
HETATM    8  C   LIG     1      51.174  18.724  70.246  1.00  0.00     0.008 C 
HETATM    9  C   LIG     1      51.493  17.888  74.666  1.00  0.00     0.007 C 
HETATM   10  C   LIG     1      51.322  17.446  69.358  1.00  0.00    -0.039 C 
HETATM   11  C   LIG     1      51.183  19.115  76.970  1.00  0.00    -0.017 C 
HETATM   12  C   LIG     1      49.226  16.491  70.402  1.00  0.00     0.011 C 
HETATM   13  C   LIG     1      49.127  20.129  72.939  1.00  0.00     0.012 C 
HETATM   14  C   LIG     1      48.415  19.923  75.990  1.00  0.00     0.012 C 
HETATM   15  C   LIG     1      50.657  16.225  70.039  1.00  0.00     0.010 C 
HETATM   16  C   LIG     1      49.127  16.138  73.336  1.00  0.00     0.016 C 
HETATM   17  C   LIG     1      49.323  20.087  71.397  1.00  0.00     0.001 C 
HETATM   18  C   LIG     1      52.049  19.925  69.720  1.00  0.00    -0.009 C 
HETATM   19  C   LIG     1      50.347  20.259  77.624  1.00  0.00     0.126 C 
HETATM   20  C   LIG     1      48.647  17.466  75.904  1.00  0.00     0.016 C 
HETATM   21  C   LIG     1      47.444  17.872  71.251  1.00  0.00     0.016 C 
HETATM   22  C   LIG     1      48.834  20.085  77.461  1.00  0.00     0.033 C 
HETATM   23  C   LIG     1      52.809  17.044  69.236  1.00  0.00     0.010 C 
HETATM   24  C   LIG     1      53.547  19.469  69.651  1.00  0.00    -0.014 C 
HETATM   25  C   LIG     1      53.755  18.165  68.868  1.00  0.00     0.005 C 
HETATM   26  C   LIG     1      50.699  17.673  67.967  1.00  0.00     0.015 C 
HETATM   27  C   LIG     1      51.076  17.821  77.808  1.00  0.00     0.018 C 
HETATM   28  C   LIG     1      52.687  19.505  77.027  1.00  0.00     0.018 C 
HETATM   29  C   LIG     1      51.948  21.176  70.612  1.00  0.00     0.011 C 
HETATM   30  C   LIG     1      54.485  20.512  69.030  1.00  0.00     0.010 C 
ENDROOT
BRANCH  19  31
HETATM   31  O   LIG     1      50.709  21.511  77.029  1.00  0.00    -0.395 OA
HETATM   32  H   LIG     1      50.013  22.159  77.232  1.00  0.00     0.210 HD
ENDBRANCH  19  31
TORSDOF 1
ENDMDL
MODEL 8
REMARK VINA RESULT:      -7.4      2.559      7.840
REMARK  1 active torsions:
REMARK  status: ('A' for Active; 'I' for Inactive)
REMARK    1  A    between atoms: O_1  and  C_20 
ROOT
HETATM    1  C   LIG     1      28.612  37.537  97.041  1.00  0.00    -0.032 C 
HETATM    2  C   LIG     1      27.061  37.243  96.909  1.00  0.00     0.003 C 
HETATM    3  C   LIG     1      26.496  36.219  98.003  1.00  0.00    -0.035 C 
HETATM    4  C   LIG     1      29.002  38.577  95.831  1.00  0.00    -0.027 C 
HETATM    5  C   LIG     1      26.699  36.808  99.442  1.00  0.00     0.004 C 
HETATM    6  C   LIG     1      28.746  38.058  98.516  1.00  0.00     0.011 C 
HETATM    7  C   LIG     1      28.341  39.927  96.174  1.00  0.00    -0.015 C 
HETATM    8  C   LIG     1      29.183  40.830  97.164  1.00  0.00     0.008 C 
HETATM    9  C   LIG     1      28.171  37.214  99.662  1.00  0.00     0.007 C 
HETATM   10  C   LIG     1      30.699  40.925  96.791  1.00  0.00    -0.039 C 
HETATM   11  C   LIG     1      26.069  35.957 100.615  1.00  0.00    -0.017 C 
HETATM   12  C   LIG     1      30.501  38.767  95.487  1.00  0.00     0.011 C 
HETATM   13  C   LIG     1      26.276  38.628  96.830  1.00  0.00     0.012 C 
HETATM   14  C   LIG     1      24.992  35.920  97.766  1.00  0.00     0.012 C 
HETATM   15  C   LIG     1      31.286  39.518  96.522  1.00  0.00     0.010 C 
HETATM   16  C   LIG     1      29.567  36.336  96.885  1.00  0.00     0.016 C 
HETATM   17  C   LIG     1      27.005  39.853  96.211  1.00  0.00     0.001 C 
HETATM   18  C   LIG     1      28.609  42.199  97.692  1.00  0.00    -0.009 C 
HETATM   19  C   LIG     1      24.571  35.679 100.272  1.00  0.00     0.126 C 
HETATM   20  C   LIG     1      27.220  34.857  97.832  1.00  0.00     0.016 C 
HETATM   21  C   LIG     1      28.452  38.057  94.439  1.00  0.00     0.016 C 
HETATM   22  C   LIG     1      24.362  35.069  98.883  1.00  0.00     0.033 C 
HETATM   23  C   LIG     1      31.517  41.450  97.993  1.00  0.00     0.010 C 
HETATM   24  C   LIG     1      29.456  42.662  98.928  1.00  0.00    -0.014 C 
HETATM   25  C   LIG     1      30.966  42.691  98.659  1.00  0.00     0.005 C 
HETATM   26  C   LIG     1      30.901  41.822  95.555  1.00  0.00     0.015 C 
HETATM   27  C   LIG     1      26.812  34.633 100.903  1.00  0.00     0.018 C 
HETATM   28  C   LIG     1      26.132  36.749 101.951  1.00  0.00     0.018 C 
HETATM   29  C   LIG     1      27.129  42.108  98.107  1.00  0.00     0.011 C 
HETATM   30  C   LIG     1      29.074  44.051  99.456  1.00  0.00     0.010 C 
ENDROOT
BRANCH  19  31
HETATM   31  O   LIG     1      23.836  36.907 100.327  1.00  0.00    -0.395 OA
HETATM   32  H   LIG     1      23.932  37.359  99.471  1.00  0.00     0.210 HD
ENDBRANCH  19  31
TORSDOF 1
ENDMDL
MODEL 9
REMARK VINA RESULT:      -7.4     15.892     18.745
REMARK  1 active torsions:
REMARK  status: ('A' for Active; 'I' for Inactive)
REMARK    1  A    between atoms: O_1  and  C_20 
ROOT
HETATM    1  C   LIG     1      33.403  35.371  81.884  1.00  0.00    -0.032 C 
HETATM    2  C   LIG     1      34.236  34.820  83.113  1.00  0.00     0.003 C 
HETATM    3  C   LIG     1      35.246  35.889  83.747  1.00  0.00    -0.035 C 
HETATM    4  C   LIG     1      32.454  34.136  81.363  1.00  0.00    -0.027 C 
HETATM    5  C   LIG     1      34.448  37.123  84.290  1.00  0.00     0.004 C 
HETATM    6  C   LIG     1      32.687  36.633  82.482  1.00  0.00     0.011 C 
HETATM    7  C   LIG     1      31.389  33.902  82.454  1.00  0.00    -0.015 C 
HETATM    8  C   LIG     1      30.131  34.857  82.349  1.00  0.00     0.008 C 
HETATM    9  C   LIG     1      33.527  37.701  83.195  1.00  0.00     0.007 C 
HETATM   10  C   LIG     1      29.559  34.983  80.899  1.00  0.00    -0.039 C 
HETATM   11  C   LIG     1      35.310  38.201  85.060  1.00  0.00    -0.017 C 
HETATM   12  C   LIG     1      31.795  34.260  79.966  1.00  0.00     0.011 C 
HETATM   13  C   LIG     1      33.236  34.153  84.159  1.00  0.00     0.012 C 
HETATM   14  C   LIG     1      36.082  35.259  84.894  1.00  0.00     0.012 C 
HETATM   15  C   LIG     1      30.693  35.275  79.886  1.00  0.00     0.010 C 
HETATM   16  C   LIG     1      34.203  35.833  80.649  1.00  0.00     0.016 C 
HETATM   17  C   LIG     1      31.921  33.521  83.621  1.00  0.00     0.001 C 
HETATM   18  C   LIG     1      28.995  34.815  83.441  1.00  0.00    -0.009 C 
HETATM   19  C   LIG     1      36.137  37.471  86.166  1.00  0.00     0.126 C 
HETATM   20  C   LIG     1      36.279  36.302  82.664  1.00  0.00     0.016 C 
HETATM   21  C   LIG     1      33.304  32.814  81.162  1.00  0.00     0.016 C 
HETATM   22  C   LIG     1      36.951  36.284  85.642  1.00  0.00     0.033 C 
HETATM   23  C   LIG     1      28.633  36.217  80.792  1.00  0.00     0.010 C 
HETATM   24  C   LIG     1      28.113  36.105  83.304  1.00  0.00    -0.014 C 
HETATM   25  C   LIG     1      27.591  36.341  81.881  1.00  0.00     0.005 C 
HETATM   26  C   LIG     1      28.811  33.699  80.494  1.00  0.00     0.015 C 
HETATM   27  C   LIG     1      36.242  39.031  84.149  1.00  0.00     0.018 C 
HETATM   28  C   LIG     1      34.385  39.246  85.743  1.00  0.00     0.018 C 
HETATM   29  C   LIG     1      29.547  34.737  84.876  1.00  0.00     0.011 C 
HETATM   30  C   LIG     1      26.891  36.121  84.232  1.00  0.00     0.010 C 
ENDROOT
BRANCH  19  31
HETATM   31  O   LIG     1      35.248  36.980  87.176  1.00  0.00    -0.395 OA
HETATM   32  H   LIG     1      34.345  36.981  86.815  1.00  0.00     0.210 HD
ENDBRANCH  19  31
TORSDOF 1
ENDMDL
MODEL 10
REMARK VINA RESULT:      -7.4     38.077     41.212
REMARK  1 active torsions:
REMARK  status: ('A' for Active; 'I' for Inactive)
REMARK    1  A    between atoms: O_1  and  C_20 
ROOT
HETATM    1  C   LIG     1      48.710  18.438  73.739  1.00  0.00    -0.032 C 
HETATM    2  C   LIG     1      49.373  19.756  74.317  1.00  0.00     0.003 C 
HETATM    3  C   LIG     1      50.263  19.518  75.627  1.00  0.00    -0.035 C 
HETATM    4  C   LIG     1      47.829  18.886  72.428  1.00  0.00    -0.027 C 
HETATM    5  C   LIG     1      51.451  18.550  75.298  1.00  0.00     0.004 C 
HETATM    6  C   LIG     1      49.946  17.501  73.497  1.00  0.00     0.011 C 
HETATM    7  C   LIG     1      48.836  19.301  71.336  1.00  0.00    -0.015 C 
HETATM    8  C   LIG     1      49.407  18.093  70.487  1.00  0.00     0.008 C 
HETATM    9  C   LIG     1      50.931  17.252  74.647  1.00  0.00     0.007 C 
HETATM   10  C   LIG     1      48.308  17.087  70.010  1.00  0.00    -0.039 C 
HETATM   11  C   LIG     1      52.487  18.329  76.471  1.00  0.00    -0.017 C 
HETATM   12  C   LIG     1      46.789  17.882  71.869  1.00  0.00     0.011 C 
HETATM   13  C   LIG     1      50.125  20.518  73.136  1.00  0.00     0.012 C 
HETATM   14  C   LIG     1      50.816  20.859  76.179  1.00  0.00     0.012 C 
HETATM   15  C   LIG     1      47.385  16.686  71.187  1.00  0.00     0.010 C 
HETATM   16  C   LIG     1      47.731  17.686  74.664  1.00  0.00     0.016 C 
HETATM   17  C   LIG     1      49.576  20.358  71.690  1.00  0.00     0.001 C 
HETATM   18  C   LIG     1      50.518  18.330  69.394  1.00  0.00    -0.009 C 
HETATM   19  C   LIG     1      52.959  19.727  76.982  1.00  0.00     0.126 C 
HETATM   20  C   LIG     1      49.354  18.953  76.751  1.00  0.00     0.016 C 
HETATM   21  C   LIG     1      46.887  20.113  72.771  1.00  0.00     0.016 C 
HETATM   22  C   LIG     1      51.807  20.670  77.341  1.00  0.00     0.033 C 
HETATM   23  C   LIG     1      48.955  15.753  69.570  1.00  0.00     0.010 C 
HETATM   24  C   LIG     1      51.158  16.950  69.014  1.00  0.00    -0.014 C 
HETATM   25  C   LIG     1      50.127  15.883  68.622  1.00  0.00     0.005 C 
HETATM   26  C   LIG     1      47.470  17.694  68.869  1.00  0.00     0.015 C 
HETATM   27  C   LIG     1      51.940  17.482  77.643  1.00  0.00     0.018 C 
HETATM   28  C   LIG     1      53.727  17.545  75.957  1.00  0.00     0.018 C 
HETATM   29  C   LIG     1      51.630  19.284  69.868  1.00  0.00     0.011 C 
HETATM   30  C   LIG     1      52.169  17.032  67.863  1.00  0.00     0.010 C 
ENDROOT
BRANCH  19  31
HETATM   31  O   LIG     1      53.744  20.362  75.966  1.00  0.00    -0.395 OA
HETATM   32  H   LIG     1      53.520  19.959  75.110  1.00  0.00     0.210 HD
ENDBRANCH  19  31
TORSDOF 1
ENDMDL
MODEL 11
REMARK VINA RESULT:      -7.3      3.006      6.070
REMARK  1 active torsions:
REMARK  status: ('A' for Active; 'I' for Inactive)
REMARK    1  A    between atoms: O_1  and  C_20 
ROOT
HETATM    1  C   LIG     1      28.913  38.211  95.310  1.00  0.00    -0.032 C 
HETATM    2  C   LIG     1      28.650  39.746  95.021  1.00  0.00     0.003 C 
HETATM    3  C   LIG     1      28.282  40.069  93.496  1.00  0.00    -0.035 C 
HETATM    4  C   LIG     1      29.295  38.087  96.902  1.00  0.00    -0.027 C 
HETATM    5  C   LIG     1      26.962  39.325  93.095  1.00  0.00     0.004 C 
HETATM    6  C   LIG     1      27.584  37.530  94.826  1.00  0.00     0.011 C 
HETATM    7  C   LIG     1      28.007  38.394  97.693  1.00  0.00    -0.015 C 
HETATM    8  C   LIG     1      27.042  37.152  97.871  1.00  0.00     0.008 C 
HETATM    9  C   LIG     1      27.068  37.819  93.411  1.00  0.00     0.007 C 
HETATM   10  C   LIG     1      27.778  35.844  98.309  1.00  0.00    -0.039 C 
HETATM   11  C   LIG     1      26.411  39.658  91.651  1.00  0.00    -0.017 C 
HETATM   12  C   LIG     1      29.946  36.771  97.397  1.00  0.00     0.011 C 
HETATM   13  C   LIG     1      27.602  40.301  96.086  1.00  0.00     0.012 C 
HETATM   14  C   LIG     1      28.113  41.596  93.272  1.00  0.00     0.012 C 
HETATM   15  C   LIG     1      29.020  35.590  97.422  1.00  0.00     0.010 C 
HETATM   16  C   LIG     1      30.079  37.548  94.547  1.00  0.00     0.016 C 
HETATM   17  C   LIG     1      27.562  39.640  97.493  1.00  0.00     0.001 C 
HETATM   18  C   LIG     1      25.639  37.315  98.571  1.00  0.00    -0.009 C 
HETATM   19  C   LIG     1      26.307  41.209  91.509  1.00  0.00     0.126 C 
HETATM   20  C   LIG     1      29.475  39.650  92.597  1.00  0.00     0.016 C 
HETATM   21  C   LIG     1      30.419  39.130  97.298  1.00  0.00     0.016 C 
HETATM   22  C   LIG     1      27.602  41.947  91.864  1.00  0.00     0.033 C 
HETATM   23  C   LIG     1      26.879  34.611  98.058  1.00  0.00     0.010 C 
HETATM   24  C   LIG     1      24.764  36.054  98.252  1.00  0.00    -0.014 C 
HETATM   25  C   LIG     1      25.462  34.726  98.574  1.00  0.00     0.005 C 
HETATM   26  C   LIG     1      28.198  35.924  99.789  1.00  0.00     0.015 C 
HETATM   27  C   LIG     1      27.257  39.066  90.502  1.00  0.00     0.018 C 
HETATM   28  C   LIG     1      24.994  39.048  91.460  1.00  0.00     0.018 C 
HETATM   29  C   LIG     1      24.884  38.576  98.113  1.00  0.00     0.011 C 
HETATM   30  C   LIG     1      23.416  36.034  98.985  1.00  0.00     0.010 C 
ENDROOT
BRANCH  19  31
HETATM   31  O   LIG     1      25.275  41.697  92.374  1.00  0.00    -0.395 OA
HETATM   32  H   LIG     1      25.098  41.021  93.051  1.00  0.00     0.210 HD
ENDBRANCH  19  31
TORSDOF 1
ENDMDL
MODEL 12
REMARK VINA RESULT:      -7.2      1.839      4.289
REMARK  1 active torsions:
REMARK  status: ('A' for Active; 'I' for Inactive)
REMARK    1  A    between atoms: O_1  and  C_20 
ROOT
HETATM    1  C   LIG     1      25.181  37.865  99.905  1.00  0.00    -0.032 C 
HETATM    2  C   LIG     1      25.339  37.080  98.539  1.00  0.00     0.003 C 
HETATM    3  C   LIG     1      26.720  37.364  97.780  1.00  0.00    -0.035 C 
HETATM    4  C   LIG     1      23.709  37.466 100.515  1.00  0.00    -0.027 C 
HETATM    5  C   LIG     1      27.925  36.913  98.674  1.00  0.00     0.004 C 
HETATM    6  C   LIG     1      26.448  37.417 100.717  1.00  0.00     0.011 C 
HETATM    7  C   LIG     1      23.793  35.988 100.948  1.00  0.00    -0.015 C 
HETATM    8  C   LIG     1      24.403  35.768 102.391  1.00  0.00     0.008 C 
HETATM    9  C   LIG     1      27.834  37.555 100.074  1.00  0.00     0.007 C 
HETATM   10  C   LIG     1      23.815  36.731 103.475  1.00  0.00    -0.039 C 
HETATM   11  C   LIG     1      29.348  37.018  97.993  1.00  0.00    -0.017 C 
HETATM   12  C   LIG     1      23.127  38.343 101.652  1.00  0.00     0.011 C 
HETATM   13  C   LIG     1      25.027  35.537  98.790  1.00  0.00     0.012 C 
HETATM   14  C   LIG     1      26.772  36.623  96.417  1.00  0.00     0.012 C 
HETATM   15  C   LIG     1      23.827  38.195 102.971  1.00  0.00     0.010 C 
HETATM   16  C   LIG     1      25.199  39.406  99.831  1.00  0.00     0.016 C 
HETATM   17  C   LIG     1      24.029  35.162  99.922  1.00  0.00     0.001 C 
HETATM   18  C   LIG     1      24.648  34.314 102.949  1.00  0.00    -0.009 C 
HETATM   19  C   LIG     1      29.293  36.276  96.621  1.00  0.00     0.126 C 
HETATM   20  C   LIG     1      26.795  38.874  97.431  1.00  0.00     0.016 C 
HETATM   21  C   LIG     1      22.579  37.632  99.417  1.00  0.00     0.016 C 
HETATM   22  C   LIG     1      28.140  36.733  95.722  1.00  0.00     0.033 C 
HETATM   23  C   LIG     1      24.725  36.756 104.724  1.00  0.00     0.010 C 
HETATM   24  C   LIG     1      25.603  34.402 104.191  1.00  0.00    -0.014 C 
HETATM   25  C   LIG     1      25.131  35.400 105.257  1.00  0.00     0.005 C 
HETATM   26  C   LIG     1      22.379  36.317 103.850  1.00  0.00     0.015 C 
HETATM   27  C   LIG     1      29.852  38.467  97.805  1.00  0.00     0.018 C 
HETATM   28  C   LIG     1      30.424  36.334  98.883  1.00  0.00     0.018 C 
HETATM   29  C   LIG     1      25.270  33.369 101.906  1.00  0.00     0.011 C 
HETATM   30  C   LIG     1      25.816  33.060 104.904  1.00  0.00     0.010 C 
ENDROOT
BRANCH  19  31
HETATM   31  O   LIG     1      29.141  34.870  96.847  1.00  0.00    -0.395 OA
HETATM   32  H   LIG     1      28.193  34.655  96.812  1.00  0.00     0.210 HD
ENDBRANCH  19  31
TORSDOF 1
ENDMDL
MODEL 13
REMARK VINA RESULT:      -7.2      2.619      6.761
REMARK  1 active torsions:
REMARK  status: ('A' for Active; 'I' for Inactive)
REMARK    1  A    between atoms: O_1  and  C_20 
ROOT
HETATM    1  C   LIG     1      23.743  36.834 101.500  1.00  0.00    -0.032 C 
HETATM    2  C   LIG     1      24.401  36.819 102.941  1.00  0.00     0.003 C 
HETATM    3  C   LIG     1      24.058  35.512 103.800  1.00  0.00    -0.035 C 
HETATM    4  C   LIG     1      24.187  38.247 100.791  1.00  0.00    -0.027 C 
HETATM    5  C   LIG     1      24.596  34.234 103.070  1.00  0.00     0.004 C 
HETATM    6  C   LIG     1      24.273  35.502 100.858  1.00  0.00     0.011 C 
HETATM    7  C   LIG     1      25.699  38.145 100.503  1.00  0.00    -0.015 C 
HETATM    8  C   LIG     1      26.055  37.404  99.151  1.00  0.00     0.008 C 
HETATM    9  C   LIG     1      24.085  34.182 101.616  1.00  0.00     0.007 C 
HETATM   10  C   LIG     1      25.192  37.872  97.934  1.00  0.00    -0.039 C 
HETATM   11  C   LIG     1      24.439  32.881 103.872  1.00  0.00    -0.017 C 
HETATM   12  C   LIG     1      23.414  38.705  99.528  1.00  0.00     0.011 C 
HETATM   13  C   LIG     1      25.959  37.129 102.802  1.00  0.00     0.012 C 
HETATM   14  C   LIG     1      24.671  35.601 105.224  1.00  0.00     0.012 C 
HETATM   15  C   LIG     1      23.688  37.886  98.301  1.00  0.00     0.010 C 
HETATM   16  C   LIG     1      22.203  36.799 101.436  1.00  0.00     0.016 C 
HETATM   17  C   LIG     1      26.429  38.020 101.618  1.00  0.00     0.001 C 
HETATM   18  C   LIG     1      27.555  37.130  98.753  1.00  0.00    -0.009 C 
HETATM   19  C   LIG     1      25.052  33.078 105.295  1.00  0.00     0.126 C 
HETATM   20  C   LIG     1      22.523  35.448 104.017  1.00  0.00     0.016 C 
HETATM   21  C   LIG     1      23.914  39.474 101.755  1.00  0.00     0.016 C 
HETATM   22  C   LIG     1      24.507  34.303 106.034  1.00  0.00     0.033 C 
HETATM   23  C   LIG     1      25.287  36.847  96.781  1.00  0.00     0.010 C 
HETATM   24  C   LIG     1      27.588  36.060  97.607  1.00  0.00    -0.014 C 
HETATM   25  C   LIG     1      26.689  36.413  96.414  1.00  0.00     0.005 C 
HETATM   26  C   LIG     1      25.629  39.272  97.461  1.00  0.00     0.015 C 
HETATM   27  C   LIG     1      22.983  32.375 103.976  1.00  0.00     0.018 C 
HETATM   28  C   LIG     1      25.209  31.736 103.156  1.00  0.00     0.018 C 
HETATM   29  C   LIG     1      28.405  36.624  99.933  1.00  0.00     0.011 C 
HETATM   30  C   LIG     1      28.990  35.801  97.042  1.00  0.00     0.010 C 
ENDROOT
BRANCH  19  31
HETATM   31  O   LIG     1      26.472  33.229 105.183  1.00  0.00    -0.395 OA
HETATM   32  H   LIG     1      26.741  32.939 104.295  1.00  0.00     0.210 HD
ENDBRANCH  19  31
TORSDOF 1
ENDMDL
MODEL 14
REMARK VINA RESULT:      -7.1      2.186      6.816
REMARK  1 active torsions:
REMARK  status: ('A' for Active; 'I' for Inactive)
REMARK    1  A    between atoms: O_1  and  C_20 
ROOT
HETATM    1  C   LIG     1      25.356  36.886 100.352  1.00  0.00    -0.032 C 
HETATM    2  C   LIG     1      24.484  35.564 100.318  1.00  0.00     0.003 C 
HETATM    3  C   LIG     1      23.023  35.730 100.952  1.00  0.00    -0.035 C 
HETATM    4  C   LIG     1      26.810  36.512  99.687  1.00  0.00    -0.027 C 
HETATM    5  C   LIG     1      22.209  36.801 100.148  1.00  0.00     0.004 C 
HETATM    6  C   LIG     1      24.454  37.921  99.590  1.00  0.00     0.011 C 
HETATM    7  C   LIG     1      26.564  36.273  98.183  1.00  0.00    -0.015 C 
HETATM    8  C   LIG     1      26.550  37.592  97.309  1.00  0.00     0.008 C 
HETATM    9  C   LIG     1      23.001  38.120 100.040  1.00  0.00     0.007 C 
HETATM   10  C   LIG     1      27.732  38.566  97.627  1.00  0.00    -0.039 C 
HETATM   11  C   LIG     1      20.700  36.973 100.587  1.00  0.00    -0.017 C 
HETATM   12  C   LIG     1      27.987  37.496  99.904  1.00  0.00     0.011 C 
HETATM   13  C   LIG     1      24.499  34.971  98.838  1.00  0.00     0.012 C 
HETATM   14  C   LIG     1      22.256  34.380 100.954  1.00  0.00     0.012 C 
HETATM   15  C   LIG     1      27.862  38.789  99.153  1.00  0.00     0.010 C 
HETATM   16  C   LIG     1      25.671  37.478 101.740  1.00  0.00     0.016 C 
HETATM   17  C   LIG     1      25.749  35.236  97.952  1.00  0.00     0.001 C 
HETATM   18  C   LIG     1      26.217  37.535  95.769  1.00  0.00    -0.009 C 
HETATM   19  C   LIG     1      20.025  35.565 100.591  1.00  0.00     0.126 C 
HETATM   20  C   LIG     1      23.171  36.122 102.446  1.00  0.00     0.016 C 
HETATM   21  C   LIG     1      27.410  35.199 100.339  1.00  0.00     0.016 C 
HETATM   22  C   LIG     1      20.792  34.518 101.404  1.00  0.00     0.033 C 
HETATM   23  C   LIG     1      27.432  39.976  97.066  1.00  0.00     0.010 C 
HETATM   24  C   LIG     1      25.890  38.985  95.268  1.00  0.00    -0.014 C 
HETATM   25  C   LIG     1      26.969  40.015  95.627  1.00  0.00     0.005 C 
HETATM   26  C   LIG     1      29.057  38.020  97.061  1.00  0.00     0.015 C 
HETATM   27  C   LIG     1      20.518  37.663 101.958  1.00  0.00     0.018 C 
HETATM   28  C   LIG     1      19.944  37.882  99.578  1.00  0.00     0.018 C 
HETATM   29  C   LIG     1      25.026  36.614  95.448  1.00  0.00     0.011 C 
HETATM   30  C   LIG     1      25.673  39.081  93.752  1.00  0.00     0.010 C 
ENDROOT
BRANCH  19  31
HETATM   31  O   LIG     1      19.921  35.085  99.246  1.00  0.00    -0.395 OA
HETATM   32  H   LIG     1      18.986  35.118  98.980  1.00  0.00     0.210 HD
ENDBRANCH  19  31
TORSDOF 1
ENDMDL
MODEL 15
REMARK VINA RESULT:      -7.1     31.166     33.348
REMARK  1 active torsions:
REMARK  status: ('A' for Active; 'I' for Inactive)
REMARK    1  A    between atoms: O_1  and  C_20 
ROOT
HETATM    1  C   LIG     1      32.066   7.792  85.423  1.00  0.00    -0.032 C 
HETATM    2  C   LIG     1      33.175   8.650  84.686  1.00  0.00     0.003 C 
HETATM    3  C   LIG     1      34.236   7.775  83.865  1.00  0.00    -0.035 C 
HETATM    4  C   LIG     1      31.098   8.854  86.220  1.00  0.00    -0.027 C 
HETATM    5  C   LIG     1      33.505   6.963  82.741  1.00  0.00     0.004 C 
HETATM    6  C   LIG     1      31.426   6.964  84.252  1.00  0.00     0.011 C 
HETATM    7  C   LIG     1      30.310   9.629  85.145  1.00  0.00    -0.015 C 
HETATM    8  C   LIG     1      29.007   8.890  84.635  1.00  0.00     0.008 C 
HETATM    9  C   LIG     1      32.339   6.145  83.331  1.00  0.00     0.007 C 
HETATM   10  C   LIG     1      28.129   8.300  85.787  1.00  0.00    -0.039 C 
HETATM   11  C   LIG     1      34.452   6.153  81.768  1.00  0.00    -0.017 C 
HETATM   12  C   LIG     1      30.147   8.298  87.310  1.00  0.00     0.011 C 
HETATM   13  C   LIG     1      32.465   9.796  83.837  1.00  0.00     0.012 C 
HETATM   14  C   LIG     1      35.334   8.673  83.234  1.00  0.00     0.012 C 
HETATM   15  C   LIG     1      28.998   7.491  86.780  1.00  0.00     0.010 C 
HETATM   16  C   LIG     1      32.553   6.789  86.489  1.00  0.00     0.016 C 
HETATM   17  C   LIG     1      31.102  10.349  84.342  1.00  0.00     0.001 C 
HETATM   18  C   LIG     1      28.138   9.500  83.470  1.00  0.00    -0.009 C 
HETATM   19  C   LIG     1      35.538   7.128  81.213  1.00  0.00     0.126 C 
HETATM   20  C   LIG     1      34.985   6.843  84.854  1.00  0.00     0.016 C 
HETATM   21  C   LIG     1      31.959   9.869  87.080  1.00  0.00     0.016 C 
HETATM   22  C   LIG     1      36.285   7.901  82.303  1.00  0.00     0.033 C 
HETATM   23  C   LIG     1      27.133   7.259  85.226  1.00  0.00     0.010 C 
HETATM   24  C   LIG     1      27.176   8.390  82.921  1.00  0.00    -0.014 C 
HETATM   25  C   LIG     1      26.346   7.703  84.013  1.00  0.00     0.005 C 
HETATM   26  C   LIG     1      27.385   9.423  86.535  1.00  0.00     0.015 C 
HETATM   27  C   LIG     1      35.116   4.919  82.419  1.00  0.00     0.018 C 
HETATM   28  C   LIG     1      33.638   5.585  80.572  1.00  0.00     0.018 C 
HETATM   29  C   LIG     1      28.990  10.042  82.308  1.00  0.00     0.011 C 
HETATM   30  C   LIG     1      26.184   8.897  81.865  1.00  0.00     0.010 C 
ENDROOT
BRANCH  19  31
HETATM   31  O   LIG     1      34.917   8.084  80.345  1.00  0.00    -0.395 OA
HETATM   32  H   LIG     1      34.917   8.947  80.792  1.00  0.00     0.210 HD
ENDBRANCH  19  31
TORSDOF 1
ENDMDL
MODEL 16
REMARK VINA RESULT:      -7.1     17.830     20.658
REMARK  1 active torsions:
REMARK  status: ('A' for Active; 'I' for Inactive)
REMARK    1  A    between atoms: O_1  and  C_20 
ROOT
HETATM    1  C   LIG     1      29.289  35.932  80.182  1.00  0.00    -0.032 C 
HETATM    2  C   LIG     1      30.797  35.805  79.715  1.00  0.00     0.003 C 
HETATM    3  C   LIG     1      31.857  35.850  80.915  1.00  0.00    -0.035 C 
HETATM    4  C   LIG     1      28.367  35.889  78.823  1.00  0.00    -0.027 C 
HETATM    5  C   LIG     1      31.609  34.652  81.894  1.00  0.00     0.004 C 
HETATM    6  C   LIG     1      29.135  34.747  81.200  1.00  0.00     0.011 C 
HETATM    7  C   LIG     1      28.461  34.453  78.267  1.00  0.00    -0.015 C 
HETATM    8  C   LIG     1      27.452  33.432  78.933  1.00  0.00     0.008 C 
HETATM    9  C   LIG     1      30.137  34.620  82.355  1.00  0.00     0.007 C 
HETATM   10  C   LIG     1      25.994  33.985  79.064  1.00  0.00    -0.039 C 
HETATM   11  C   LIG     1      32.667  34.500  83.058  1.00  0.00    -0.017 C 
HETATM   12  C   LIG     1      26.890  36.345  78.928  1.00  0.00     0.011 C 
HETATM   13  C   LIG     1      30.938  34.540  78.756  1.00  0.00     0.012 C 
HETATM   14  C   LIG     1      33.313  35.798  80.379  1.00  0.00     0.012 C 
HETATM   15  C   LIG     1      26.000  35.403  79.684  1.00  0.00     0.010 C 
HETATM   16  C   LIG     1      28.892  37.229  80.916  1.00  0.00     0.016 C 
HETATM   17  C   LIG     1      29.705  34.119  77.907  1.00  0.00     0.001 C 
HETATM   18  C   LIG     1      27.482  31.903  78.549  1.00  0.00    -0.009 C 
HETATM   19  C   LIG     1      34.095  34.491  82.427  1.00  0.00     0.126 C 
HETATM   20  C   LIG     1      31.732  37.218  81.638  1.00  0.00     0.016 C 
HETATM   21  C   LIG     1      28.907  36.911  77.740  1.00  0.00     0.016 C 
HETATM   22  C   LIG     1      34.363  35.677  81.496  1.00  0.00     0.033 C 
HETATM   23  C   LIG     1      25.186  33.137  80.072  1.00  0.00     0.010 C 
HETATM   24  C   LIG     1      26.676  31.094  79.624  1.00  0.00    -0.014 C 
HETATM   25  C   LIG     1      25.264  31.640  79.870  1.00  0.00     0.005 C 
HETATM   26  C   LIG     1      25.298  34.015  77.690  1.00  0.00     0.015 C 
HETATM   27  C   LIG     1      32.565  35.590  84.148  1.00  0.00     0.018 C 
HETATM   28  C   LIG     1      32.451  33.158  83.812  1.00  0.00     0.018 C 
HETATM   29  C   LIG     1      28.910  31.335  78.462  1.00  0.00     0.011 C 
HETATM   30  C   LIG     1      26.523  29.604  79.292  1.00  0.00     0.010 C 
ENDROOT
BRANCH  19  31
HETATM   31  O   LIG     1      34.271  33.290  81.666  1.00  0.00    -0.395 OA
HETATM   32  H   LIG     1      35.063  32.832  81.995  1.00  0.00     0.210 HD
ENDBRANCH  19  31
TORSDOF 1
ENDMDL
MODEL 17
REMARK VINA RESULT:      -7.1      1.921      3.388
REMARK  1 active torsions:
REMARK  status: ('A' for Active; 'I' for Inactive)
REMARK    1  A    between atoms: O_1  and  C_20 
ROOT
HETATM    1  C   LIG     1      27.538  36.660  97.464  1.00  0.00    -0.032 C 
HETATM    2  C   LIG     1      28.157  38.069  97.087  1.00  0.00     0.003 C 
HETATM    3  C   LIG     1      28.494  38.239  95.531  1.00  0.00    -0.035 C 
HETATM    4  C   LIG     1      27.286  36.671  99.087  1.00  0.00    -0.027 C 
HETATM    5  C   LIG     1      27.184  38.106  94.682  1.00  0.00     0.004 C 
HETATM    6  C   LIG     1      26.276  36.572  96.534  1.00  0.00     0.011 C 
HETATM    7  C   LIG     1      26.134  37.661  99.351  1.00  0.00    -0.015 C 
HETATM    8  C   LIG     1      24.689  37.040  99.174  1.00  0.00     0.008 C 
HETATM    9  C   LIG     1      26.442  36.798  95.026  1.00  0.00     0.007 C 
HETATM   10  C   LIG     1      24.519  35.645  99.860  1.00  0.00    -0.039 C 
HETATM   11  C   LIG     1      27.350  38.381  93.134  1.00  0.00    -0.017 C 
HETATM   12  C   LIG     1      27.025  35.317  99.794  1.00  0.00     0.011 C 
HETATM   13  C   LIG     1      27.234  39.219  97.693  1.00  0.00     0.012 C 
HETATM   14  C   LIG     1      29.166  39.609  95.249  1.00  0.00     0.012 C 
HETATM   15  C   LIG     1      25.690  34.704  99.489  1.00  0.00     0.010 C 
HETATM   16  C   LIG     1      28.409  35.418  97.183  1.00  0.00     0.016 C 
HETATM   17  C   LIG     1      26.438  38.915  98.994  1.00  0.00     0.001 C 
HETATM   18  C   LIG     1      23.402  37.939  99.313  1.00  0.00    -0.009 C 
HETATM   19  C   LIG     1      28.062  39.759  92.953  1.00  0.00     0.126 C 
HETATM   20  C   LIG     1      29.549  37.173  95.131  1.00  0.00     0.016 C 
HETATM   21  C   LIG     1      28.584  37.152  99.858  1.00  0.00     0.016 C 
HETATM   22  C   LIG     1      29.363  39.888  93.749  1.00  0.00     0.033 C 
HETATM   23  C   LIG     1      23.268  34.923  99.308  1.00  0.00     0.010 C 
HETATM   24  C   LIG     1      22.178  37.169  98.707  1.00  0.00    -0.014 C 
HETATM   25  C   LIG     1      22.004  35.753  99.271  1.00  0.00     0.005 C 
HETATM   26  C   LIG     1      24.433  35.797 101.391  1.00  0.00     0.015 C 
HETATM   27  C   LIG     1      28.117  37.274  92.377  1.00  0.00     0.018 C 
HETATM   28  C   LIG     1      25.959  38.447  92.444  1.00  0.00     0.018 C 
HETATM   29  C   LIG     1      23.541  39.297  98.602  1.00  0.00     0.011 C 
HETATM   30  C   LIG     1      20.837  37.890  98.898  1.00  0.00     0.010 C 
ENDROOT
BRANCH  19  31
HETATM   31  O   LIG     1      27.182  40.806  93.379  1.00  0.00    -0.395 OA
HETATM   32  H   LIG     1      27.663  41.374  94.005  1.00  0.00     0.210 HD
ENDBRANCH  19  31
TORSDOF 1
ENDMDL
MODEL 18
REMARK VINA RESULT:      -7.1      2.132      4.390
REMARK  1 active torsions:
REMARK  status: ('A' for Active; 'I' for Inactive)
REMARK    1  A    between atoms: O_1  and  C_20 
ROOT
HETATM    1  C   LIG     1      23.177  36.401  99.766  1.00  0.00    -0.032 C 
HETATM    2  C   LIG     1      24.347  35.351  99.573  1.00  0.00     0.003 C 
HETATM    3  C   LIG     1      25.603  35.917  98.756  1.00  0.00    -0.035 C 
HETATM    4  C   LIG     1      21.985  35.635 100.597  1.00  0.00    -0.027 C 
HETATM    5  C   LIG     1      26.237  37.130  99.521  1.00  0.00     0.004 C 
HETATM    6  C   LIG     1      23.897  37.604 100.474  1.00  0.00     0.011 C 
HETATM    7  C   LIG     1      22.515  35.408 102.027  1.00  0.00    -0.015 C 
HETATM    8  C   LIG     1      22.332  36.648 102.993  1.00  0.00     0.008 C 
HETATM    9  C   LIG     1      25.166  38.192  99.842  1.00  0.00     0.007 C 
HETATM   10  C   LIG     1      20.909  37.294 102.921  1.00  0.00    -0.039 C 
HETATM   11  C   LIG     1      27.567  37.706  98.889  1.00  0.00    -0.017 C 
HETATM   12  C   LIG     1      20.580  36.288 100.625  1.00  0.00     0.011 C 
HETATM   13  C   LIG     1      24.712  34.716 100.989  1.00  0.00     0.012 C 
HETATM   14  C   LIG     1      26.674  34.815  98.539  1.00  0.00     0.012 C 
HETATM   15  C   LIG     1      20.491  37.538 101.451  1.00  0.00     0.010 C 
HETATM   16  C   LIG     1      22.511  36.948  98.487  1.00  0.00     0.016 C 
HETATM   17  C   LIG     1      23.589  34.610 102.059  1.00  0.00     0.001 C 
HETATM   18  C   LIG     1      22.905  36.618 104.461  1.00  0.00    -0.009 C 
HETATM   19  C   LIG     1      28.565  36.524  98.679  1.00  0.00     0.126 C 
HETATM   20  C   LIG     1      25.131  36.318  97.333  1.00  0.00     0.016 C 
HETATM   21  C   LIG     1      21.640  34.239  99.933  1.00  0.00     0.016 C 
HETATM   22  C   LIG     1      27.968  35.347  97.901  1.00  0.00     0.033 C 
HETATM   23  C   LIG     1      20.929  38.709 103.545  1.00  0.00     0.010 C 
HETATM   24  C   LIG     1      22.931  38.081 105.025  1.00  0.00    -0.014 C 
HETATM   25  C   LIG     1      21.586  38.809 104.903  1.00  0.00     0.005 C 
HETATM   26  C   LIG     1      19.869  36.400 103.622  1.00  0.00     0.015 C 
HETATM   27  C   LIG     1      27.354  38.475  97.566  1.00  0.00     0.018 C 
HETATM   28  C   LIG     1      28.218  38.738  99.851  1.00  0.00     0.018 C 
HETATM   29  C   LIG     1      24.324  36.026 104.538  1.00  0.00     0.011 C 
HETATM   30  C   LIG     1      23.350  38.169 106.498  1.00  0.00     0.010 C 
ENDROOT
BRANCH  19  31
HETATM   31  O   LIG     1      28.994  36.033  99.954  1.00  0.00    -0.395 OA
HETATM   32  H   LIG     1      28.207  35.766 100.460  1.00  0.00     0.210 HD
ENDBRANCH  19  31
TORSDOF 1
ENDMDL
MODEL 19
REMARK VINA RESULT:      -7.0     37.235     40.509
REMARK  1 active torsions:
REMARK  status: ('A' for Active; 'I' for Inactive)
REMARK    1  A    between atoms: O_1  and  C_20 
ROOT
HETATM    1  C   LIG     1      50.218  19.541  75.486  1.00  0.00    -0.032 C 
HETATM    2  C   LIG     1      48.757  18.969  75.263  1.00  0.00     0.003 C 
HETATM    3  C   LIG     1      48.130  19.322  73.832  1.00  0.00    -0.035 C 
HETATM    4  C   LIG     1      50.673  19.100  77.001  1.00  0.00    -0.027 C 
HETATM    5  C   LIG     1      49.011  18.701  72.694  1.00  0.00     0.004 C 
HETATM    6  C   LIG     1      51.020  18.932  74.281  1.00  0.00     0.011 C 
HETATM    7  C   LIG     1      50.876  17.571  76.978  1.00  0.00    -0.015 C 
HETATM    8  C   LIG     1      52.300  17.113  76.462  1.00  0.00     0.008 C 
HETATM    9  C   LIG     1      50.486  19.123  72.855  1.00  0.00     0.007 C 
HETATM   10  C   LIG     1      53.484  17.916  77.093  1.00  0.00    -0.039 C 
HETATM   11  C   LIG     1      48.437  18.863  71.230  1.00  0.00    -0.017 C 
HETATM   12  C   LIG     1      51.898  19.810  77.630  1.00  0.00     0.011 C 
HETATM   13  C   LIG     1      48.747  17.417  75.625  1.00  0.00     0.012 C 
HETATM   14  C   LIG     1      46.674  18.798  73.714  1.00  0.00     0.012 C 
HETATM   15  C   LIG     1      53.216  19.439  77.017  1.00  0.00     0.010 C 
HETATM   16  C   LIG     1      50.384  21.073  75.427  1.00  0.00     0.016 C 
HETATM   17  C   LIG     1      49.749  16.905  76.698  1.00  0.00     0.001 C 
HETATM   18  C   LIG     1      52.639  15.583  76.285  1.00  0.00    -0.009 C 
HETATM   19  C   LIG     1      46.964  18.343  71.219  1.00  0.00     0.126 C 
HETATM   20  C   LIG     1      48.025  20.865  73.701  1.00  0.00     0.016 C 
HETATM   21  C   LIG     1      49.553  19.469  78.058  1.00  0.00     0.016 C 
HETATM   22  C   LIG     1      46.083  18.969  72.304  1.00  0.00     0.033 C 
HETATM   23  C   LIG     1      54.772  17.720  76.260  1.00  0.00     0.010 C 
HETATM   24  C   LIG     1      53.930  15.448  75.406  1.00  0.00    -0.014 C 
HETATM   25  C   LIG     1      55.110  16.286  75.918  1.00  0.00     0.005 C 
HETATM   26  C   LIG     1      53.709  17.496  78.558  1.00  0.00     0.015 C 
HETATM   27  C   LIG     1      48.504  20.307  70.683  1.00  0.00     0.018 C 
HETATM   28  C   LIG     1      49.268  18.016  70.227  1.00  0.00     0.018 C 
HETATM   29  C   LIG     1      51.498  14.790  75.622  1.00  0.00     0.011 C 
HETATM   30  C   LIG     1      54.438  14.007  75.267  1.00  0.00     0.010 C 
ENDROOT
BRANCH  19  31
HETATM   31  O   LIG     1      46.961  16.924  71.417  1.00  0.00    -0.395 OA
HETATM   32  H   LIG     1      46.620  16.741  72.309  1.00  0.00     0.210 HD
ENDBRANCH  19  31
TORSDOF 1
ENDMDL
MODEL 20
REMARK VINA RESULT:      -7.0     32.851     35.747
REMARK  1 active torsions:
REMARK  status: ('A' for Active; 'I' for Inactive)
REMARK    1  A    between atoms: O_1  and  C_20 
ROOT
HETATM    1  C   LIG     1      34.273   6.484  83.773  1.00  0.00    -0.032 C 
HETATM    2  C   LIG     1      32.887   6.259  84.505  1.00  0.00     0.003 C 
HETATM    3  C   LIG     1      32.370   7.532  85.328  1.00  0.00    -0.035 C 
HETATM    4  C   LIG     1      34.642   5.075  83.013  1.00  0.00    -0.027 C 
HETATM    5  C   LIG     1      32.151   8.744  84.357  1.00  0.00     0.004 C 
HETATM    6  C   LIG     1      33.996   7.742  82.875  1.00  0.00     0.011 C 
HETATM    7  C   LIG     1      33.636   4.918  81.855  1.00  0.00    -0.015 C 
HETATM    8  C   LIG     1      34.041   5.688  80.533  1.00  0.00     0.008 C 
HETATM    9  C   LIG     1      33.419   9.008  83.521  1.00  0.00     0.007 C 
HETATM   10  C   LIG     1      35.538   5.489  80.125  1.00  0.00    -0.039 C 
HETATM   11  C   LIG     1      31.517  10.032  85.018  1.00  0.00    -0.017 C 
HETATM   12  C   LIG     1      36.095   4.874  82.514  1.00  0.00     0.011 C 
HETATM   13  C   LIG     1      31.836   5.678  83.457  1.00  0.00     0.012 C 
HETATM   14  C   LIG     1      31.049   7.216  86.079  1.00  0.00     0.012 C 
HETATM   15  C   LIG     1      36.472   5.725  81.337  1.00  0.00     0.010 C 
HETATM   16  C   LIG     1      35.489   6.809  84.665  1.00  0.00     0.016 C 
HETATM   17  C   LIG     1      32.371   4.814  82.280  1.00  0.00     0.001 C 
HETATM   18  C   LIG     1      33.077   5.711  79.286  1.00  0.00    -0.009 C 
HETATM   19  C   LIG     1      30.218   9.610  85.775  1.00  0.00     0.126 C 
HETATM   20  C   LIG     1      33.405   7.863  86.436  1.00  0.00     0.016 C 
HETATM   21  C   LIG     1      34.505   3.846  84.002  1.00  0.00     0.016 C 
HETATM   22  C   LIG     1      30.427   8.450  86.753  1.00  0.00     0.033 C 
HETATM   23  C   LIG     1      35.966   6.570  79.106  1.00  0.00     0.010 C 
HETATM   24  C   LIG     1      33.541   6.846  78.308  1.00  0.00    -0.014 C 
HETATM   25  C   LIG     1      35.028   6.765  77.936  1.00  0.00     0.005 C 
HETATM   26  C   LIG     1      35.765   4.076  79.555  1.00  0.00     0.015 C 
HETATM   27  C   LIG     1      32.473  10.789  85.967  1.00  0.00     0.018 C 
HETATM   28  C   LIG     1      31.137  11.069  83.924  1.00  0.00     0.018 C 
HETATM   29  C   LIG     1      31.606   5.953  79.670  1.00  0.00     0.011 C 
HETATM   30  C   LIG     1      32.757   6.886  76.990  1.00  0.00     0.010 C 
ENDROOT
BRANCH  19  31
HETATM   31  O   LIG     1      29.225   9.207  84.824  1.00  0.00    -0.395 OA
HETATM   32  H   LIG     1      29.237   8.237  84.762  1.00  0.00     0.210 HD
ENDBRANCH  19  31
TORSDOF 1
ENDMDL
